# created with PyMOL 2.3.5
@<TRIPOS>MOLECULE
I3C-26
56 60 1                 
SMALL
USER_CHARGES
@<TRIPOS>ATOM
1	 C01	59.522	-52.502	19.964	C.2	1	LIG1	0.000	
2	  C1	62.075	-52.728	25.581	C.2	1	LIG1	0.000	
3	  N1	61.942	-53.633	24.514	N.pl3	1	LIG1	0.000	
4	  O1	62.674	-51.614	25.719	O.2	1	LIG1	0.000	
5	 C02	59.676	-53.182	18.745	C.2	1	LIG1	0.000	
6	  C2	62.819	-53.504	23.400	C.3	1	LIG1	0.000	
7	  N2	61.092	-52.782	21.681	N.pl3	1	LIG1	0.000	
8	  O2	61.158	-51.003	20.285	O.2	1	LIG1	0.000	
9	 C03	58.545	-53.639	18.048	C.2	1	LIG1	0.000	
10	  C3	62.381	-52.466	22.287	C.3	1	LIG1	0.000	
11	  N3	59.680	-51.903	28.042	N.pl3	1	LIG1	0.000	
12	  O3	59.559	-51.921	25.784	O.2	1	LIG1	0.000	
13	 C04	57.261	-53.417	18.572	C.2	1	LIG1	0.000	
14	  C4	60.601	-52.065	20.628	C.2	1	LIG1	0.000	
15	  N4	56.529	-50.668	29.237	N.2	1	LIG1	0.000	
16	 C05	57.107	-52.737	19.791	C.2	1	LIG1	0.000	
17	 C06	58.238	-52.279	20.487	C.2	1	LIG1	0.000	
18	  C6	61.118	-53.256	26.680	C.3	1	LIG1	0.000	
19	  C7	60.072	-52.290	26.793	C.2	1	LIG1	0.000	
20	  C8	58.682	-51.005	28.345	C.2	1	LIG1	0.000	
21	  C9	57.385	-51.466	28.693	C.2	1	LIG1	0.000	
22	 C10	56.666	-49.351	29.339	C.2	1	LIG1	0.000	
23	 C11	57.905	-48.794	29.015	C.2	1	LIG1	0.000	
24	 C12	58.212	-47.451	29.301	C.2	1	LIG1	0.000	
25	 C13	59.464	-46.903	28.964	C.2	1	LIG1	0.000	
26	 C14	60.442	-47.751	28.392	C.2	1	LIG1	0.000	
27	 C15	60.152	-49.086	28.134	C.2	1	LIG1	0.000	
28	 C16	58.978	-49.623	28.471	C.2	1	LIG1	0.000	
29	 C17	60.661	-54.580	26.145	C.2	1	LIG1	0.000	
30	 C18	59.921	-55.609	26.718	C.2	1	LIG1	0.000	
31	 C19	59.396	-56.619	25.845	C.2	1	LIG1	0.000	
32	 C20	60.004	-56.864	24.597	C.2	1	LIG1	0.000	
33	 C21	60.923	-55.844	24.141	C.2	1	LIG1	0.000	
34	 C22	61.195	-54.712	24.848	C.2	1	LIG1	0.000	
35	 Cl1	58.304	-57.885	26.427	Cl	1	LIG1	0.000	
36	  H1	61.588	-53.306	27.674	 H	1	LIG1	0.000	
37	  H2	60.180	-52.185	28.857	 H	1	LIG1	0.000	
38	 H01	60.901	-49.709	27.645	 H	1	LIG1	0.000	
39	 H02	61.429	-47.355	28.152	 H	1	LIG1	0.000	
40	 H03	57.468	-46.824	29.792	 H	1	LIG1	0.000	
41	 H04	59.676	-45.848	29.140	 H	1	LIG1	0.000	
42	 H05	57.110	-52.503	28.499	 H	1	LIG1	0.000	
43	 H06	55.837	-48.724	29.666	 H	1	LIG1	0.000	
44	 H07	59.746	-55.647	27.793	 H	1	LIG1	0.000	
45	 H08	59.796	-57.762	24.015	 H	1	LIG1	0.000	
46	 H17	60.685	-53.356	18.334	 H	1	LIG1	0.000	
47	 H09	61.423	-55.989	23.183	 H	1	LIG1	0.000	
48	 H18	58.666	-54.174	17.091	 H	1	LIG1	0.000	
49	 H20	56.372	-53.776	18.025	 H	1	LIG1	0.000	
50	 H11	56.098	-52.562	20.202	 H	1	LIG1	0.000	
51	 H12	63.148	-52.318	21.497	 H	1	LIG1	0.000	
52	 H21	58.117	-51.745	21.445	 H	1	LIG1	0.000	
53	 H13	62.894	-54.462	22.843	 H	1	LIG1	0.000	
54	 H14	63.816	-53.160	23.747	 H	1	LIG1	0.000	
55	 H15	60.740	-53.714	21.692	 H	1	LIG1	0.000	
56	 H19	62.225	-51.488	22.789	 H	1	LIG1	0.000	
@<TRIPOS>BOND
1 1 5 2
2 1 17 1
3 2 3 1
4 2 4 2
5 2 18 1
6 3 6 1
7 3 34 1
8 5 9 1
9 5 46 1
10 6 10 1
11 6 53 1
12 6 54 1
13 7 10 1
14 7 14 1
15 7 55 1
16 8 14 2
17 9 13 2
18 9 48 1
19 10 51 1
20 10 56 1
21 11 19 1
22 11 20 1
23 11 37 1
24 12 19 2
25 13 16 1
26 13 49 1
27 1 14 1
28 15 21 1
29 15 22 2
30 16 17 2
31 16 50 1
32 17 52 1
33 18 19 1
34 18 29 1
35 18 36 1
36 20 21 2
37 20 28 1
38 21 42 1
39 22 23 1
40 22 43 1
41 23 24 1
42 23 28 2
43 24 25 2
44 24 40 1
45 25 26 1
46 25 41 1
47 26 27 2
48 26 39 1
49 27 28 1
50 27 38 1
51 29 30 1
52 29 34 2
53 30 31 2
54 30 44 1
55 31 32 1
56 31 35 1
57 32 33 2
58 32 45 1
59 33 34 1
60 33 47 1
@<TRIPOS>SUBSTRUCTURE
1	LIG1	1	GROUP	1 L	LIG
