# created with PyMOL 2.3.5
@<TRIPOS>MOLECULE
I3C-26
49 52 1                 
SMALL
USER_CHARGES
@<TRIPOS>ATOM
1	  C1	62.075	-52.728	25.581	C.2	1	LIG1	0.000	
2	  N1	61.942	-53.633	24.514	N.pl3	1	LIG1	0.000	
3	  O1	62.674	-51.614	25.719	O.2	1	LIG1	0.000	
4	  C2	62.819	-53.504	23.400	C.3	1	LIG1	0.000	
5	  N2	61.092	-52.782	21.681	N.pl3	1	LIG1	0.000	
6	  O2	61.158	-51.003	20.285	O.2	1	LIG1	0.000	
7	  C3	62.381	-52.466	22.287	C.3	1	LIG1	0.000	
8	  N3	59.680	-51.903	28.042	N.pl3	1	LIG1	0.000	
9	  O3	59.559	-51.921	25.784	O.2	1	LIG1	0.000	
10	  C4	60.601	-52.065	20.628	C.2	1	LIG1	0.000	
11	  N4	56.529	-50.668	29.237	N.pl3	1	LIG1	0.000	
12	  C5	59.437	-52.694	19.858	C.3	1	LIG1	0.000	
13	  C6	61.118	-53.256	26.680	C.3	1	LIG1	0.000	
14	  C7	60.072	-52.290	26.793	C.2	1	LIG1	0.000	
15	  C8	58.682	-51.005	28.345	C.2	1	LIG1	0.000	
16	  C9	57.385	-51.466	28.693	C.2	1	LIG1	0.000	
17	 C10	56.666	-49.351	29.339	C.2	1	LIG1	0.000	
18	 C11	57.905	-48.794	29.015	C.2	1	LIG1	0.000	
19	 C12	58.212	-47.451	29.301	C.2	1	LIG1	0.000	
20	 C13	59.464	-46.903	28.964	C.2	1	LIG1	0.000	
21	 C14	60.442	-47.751	28.392	C.2	1	LIG1	0.000	
22	 C15	60.152	-49.086	28.134	C.2	1	LIG1	0.000	
23	 C16	58.978	-49.623	28.471	C.2	1	LIG1	0.000	
24	 C17	60.661	-54.580	26.145	C.2	1	LIG1	0.000	
25	 C18	59.921	-55.609	26.718	C.2	1	LIG1	0.000	
26	 C19	59.396	-56.619	25.845	C.2	1	LIG1	0.000	
27	 C20	60.004	-56.864	24.597	C.2	1	LIG1	0.000	
28	 C21	60.923	-55.844	24.141	C.2	1	LIG1	0.000	
29	 C22	61.195	-54.712	24.848	C.2	1	LIG1	0.000	
30	 Cl1	58.304	-57.885	26.427	Cl	1	LIG1	0.000	
31	 H01	60.901	-49.709	27.645	 H	1	LIG1	0.000	
32	 H02	61.429	-47.355	28.152	 H	1	LIG1	0.000	
33	 H03	57.468	-46.824	29.792	 H	1	LIG1	0.000	
34	 H04	59.676	-45.848	29.140	 H	1	LIG1	0.000	
35	 H05	57.110	-52.503	28.499	 H	1	LIG1	0.000	
36	 H06	55.837	-48.724	29.666	 H	1	LIG1	0.000	
37	 H07	59.746	-55.647	27.793	 H	1	LIG1	0.000	
38	 H08	59.796	-57.762	24.015	 H	1	LIG1	0.000	
39	 H09	61.423	-55.989	23.183	 H	1	LIG1	0.000	
40	  H1	61.588	-53.306	27.674	 H	1	LIG1	0.000	
41	  H2	60.180	-52.185	28.857	 H	1	LIG1	0.000	
42	 H12	63.148	-52.318	21.497	 H	1	LIG1	0.000	
43	 H13	62.894	-54.462	22.843	 H	1	LIG1	0.000	
44	 H14	63.816	-53.160	23.747	 H	1	LIG1	0.000	
45	 H15	60.740	-53.714	21.692	 H	1	LIG1	0.000	
46	 H16	59.209	-53.682	20.311	 H	1	LIG1	0.000	
47	 H17	59.850	-52.917	18.851	 H	1	LIG1	0.000	
48	 H18	58.600	-51.966	19.911	 H	1	LIG1	0.000	
49	 H19	62.225	-51.488	22.789	 H	1	LIG1	0.000	
@<TRIPOS>BOND
1 1 2 1
2 1 3 2
3 1 13 1
4 2 4 1
5 2 29 1
6 4 7 1
7 4 43 1
8 4 44 1
9 5 7 1
10 5 10 1
11 5 45 1
12 6 10 2
13 7 42 1
14 7 49 1
15 8 14 1
16 8 15 1
17 8 41 1
18 9 14 2
19 10 12 1
20 11 16 1
21 11 17 2
22 12 46 1
23 12 47 1
24 12 48 1
25 13 14 1
26 13 24 1
27 13 40 1
28 15 16 2
29 15 23 1
30 16 35 1
31 17 18 1
32 17 36 1
33 18 19 1
34 18 23 2
35 19 20 2
36 19 33 1
37 20 21 1
38 20 34 1
39 21 22 2
40 21 32 1
41 22 23 1
42 22 31 1
43 24 25 1
44 24 29 2
45 25 26 2
46 25 37 1
47 26 27 1
48 27 28 2
49 27 38 1
50 28 29 1
51 28 39 1
52 26 30 1
@<TRIPOS>SUBSTRUCTURE
1	LIG1	1	GROUP	1 L	LIG
